/*----------------------------------------------------------------------------------*\
|                                                                                    | 
|    ANSA_VERSION: 17.0.0                                                            | 
|                                                                                    | 
|    file created by  A N S A  Sat May 09 22:14:36 2020                              | 
|                                                                                    | 
|    Output from: D:/tmp/Bairikov-no-holes-fixed-1/Untitled                          | 
|                                                                                    | 
\*----------------------------------------------------------------------------------*/



FoamFile
{
	version 2.0;
	format binary;
	class dictionary;
	location "";
	object turbulenceProperties;
}
/*---------------------------------------------------------------------------*/
/*---------------------------------------------------------------------------*/

simulationType RAS;

RAS
{
	RASModel laminar;

	turbulence off;

	printCoeffs off;

}
